/*--------------------------------*- C++ -*----------------------------------*\
| =========                 |                                                 |
| \\      /  F ield         | OpenFOAM: The Open Source CFD Toolbox           |
|  \\    /   O peration     | Version:  v1606+                                |
|   \\  /    A nd           | Web:      www.OpenFOAM.com                      |
|    \\/     M anipulation  |                                                 |
\*---------------------------------------------------------------------------*/
FoamFile
{
    version     2.0;
    format      ascii;
    class       volScalarField;
    location    "0";
    object      k;
}
// * * * * * * * * * * * * * * * * * * * * * * * * * * * * * * * * * * * * * //

dimensions      [0 2 -2 0 0 0 0];

internalField   uniform 0.015;//0.0001;

boundaryField
{
    leftWall
    {
        type            kqRWallFunction;
        value           uniform 0.1;
    }

    rightWall
    {
        type            kqRWallFunction;
        value           uniform 0.1;
    }

    leftBottom
    {
        type            kqRWallFunction;
        value           uniform 0.1;
    }

    middleBottom
    {
        type            kqRWallFunction;
        value           uniform 0.1;
    }

    rightBottom
    {
        type            kqRWallFunction;
        value           uniform 0.1;
    }

    ceiling
    {
        type            kqRWallFunction;
        value           uniform 0.1;
    }

    frontAndBack
    {
        type empty;
    }
}
